BnDHC47|AKR1C3_BnDHCs|sdf|45|dock25
     RDKit          3D

 29 31  0  0  0  0  0  0  0  0999 V2000
   34.6767   26.8689   15.9903 O   0  0  0  0  0  0  0  0  0  0  0  0
   33.4883   26.9170   16.3614 C   0  0  0  0  0  0  0  0  0  0  0  0
   32.4538   26.1897   15.6352 C   0  0  0  0  0  0  0  0  0  0  0  0
   33.1120   27.7517   17.5976 C   0  0  0  0  0  0  0  0  0  0  0  0
   31.8876   25.0414   16.1889 C   0  0  0  0  0  0  0  0  0  0  0  0
   32.0309   26.6430   14.3855 C   0  0  0  0  0  0  0  0  0  0  0  0
   34.1963   28.7526   18.0044 C   0  0  0  0  0  0  0  0  0  0  0  0
   32.2991   24.5960   17.4119 O   0  0  0  0  0  0  0  0  0  0  0  0
   30.8983   24.3465   15.4932 C   0  0  0  0  0  0  0  0  0  0  0  0
   32.5717   27.7619   13.8254 O   0  0  0  0  0  0  0  0  0  0  0  0
   31.0417   25.9481   13.6899 C   0  0  0  0  0  0  0  0  0  0  0  0
   34.1175   30.0201   17.1929 C   0  0  0  0  0  0  0  0  0  0  0  0
   30.4754   24.8000   14.2437 C   0  0  0  0  0  0  0  0  0  0  0  0
   30.2890   23.1161   16.0852 C   0  0  0  0  0  0  0  0  0  0  0  0
   33.7746   29.9630   15.8419 C   0  0  0  0  0  0  0  0  0  0  0  0
   34.3895   31.2504   17.7919 C   0  0  0  0  0  0  0  0  0  0  0  0
   29.5098   24.1345   13.5498 O   0  0  0  0  0  0  0  0  0  0  0  0
   30.9894   21.8347   15.6853 C   0  0  0  0  0  0  0  0  0  0  0  0
   33.7039   31.1359   15.0899 C   0  0  0  0  0  0  0  0  0  0  0  0
   34.3188   32.4232   17.0400 C   0  0  0  0  0  0  0  0  0  0  0  0
   30.7700   20.6521   16.3921 C   0  0  0  0  0  0  0  0  0  0  0  0
   31.8615   21.8454   14.5970 C   0  0  0  0  0  0  0  0  0  0  0  0
   33.3672   31.0675   13.7716 O   0  0  0  0  0  0  0  0  0  0  0  0
   33.9760   32.3661   15.6891 C   0  0  0  0  0  0  0  0  0  0  0  0
   29.9208   20.6242   17.4573 O   0  0  0  0  0  0  0  0  0  0  0  0
   31.4233   19.4801   16.0102 C   0  0  0  0  0  0  0  0  0  0  0  0
   32.5147   20.6734   14.2151 C   0  0  0  0  0  0  0  0  0  0  0  0
   33.9104   33.5189   14.9658 O   0  0  0  0  0  0  0  0  0  0  0  0
   32.2956   19.4908   14.9218 C   0  0  0  0  0  0  0  0  0  0  0  0
  1  2  2  0
  2  3  1  0
  2  4  1  0
  3  5  2  0
  3  6  1  0
  4  7  1  0
  5  8  1  0
  5  9  1  0
  6 10  1  0
  6 11  2  0
  7 12  1  0
  9 13  2  0
  9 14  1  0
 12 15  2  0
 12 16  1  0
 13 17  1  0
 14 18  1  0
 15 19  1  0
 16 20  2  0
 18 21  2  0
 18 22  1  0
 19 23  1  0
 19 24  2  0
 21 25  1  0
 21 26  1  0
 22 27  2  0
 24 28  1  0
 26 29  2  0
 11 13  1  0
 20 24  1  0
 27 29  1  0
M  END
>  <Molecule Name>  (1) 
BnDHC47|AKR1C3_BnDHCs|sdf|45|dock25

>  <Molecule Name 2>  (1) 
BnDHC47

>  <Molecule Name 3>  (1) 
BnDHC47

>  <Gold.Version>  (1) 
5.8.1

>  <Gold.Id.Protein>  (1) 
1ZQ5|1ZQ5_protein|mol2

>  <Gold.PLP.Fitness>  (1) 
98.5477

>  <Gold.PLP.PLP>  (1) 
-84.2458

>  <Gold.PLP.part.hbond>  (1) 
-7.4180

>  <Gold.PLP.part.metal>  (1) 
0.0000

>  <Gold.PLP.part.buried>  (1) 
-10.3830

>  <Gold.PLP.part.nonpolar>  (1) 
-66.9863

>  <Gold.PLP.part.repulsive>  (1) 
0.0000

>  <Gold.PLP.ligand.clash>  (1) 
0.0000

>  <Gold.PLP.ligand.torsion>  (1) 
2.6072

>  <Gold.PLP.Chemscore.Hbond>  (1) 
5.7578

>  <Gold.PLP.Chemscore.CHOScore>  (1) 
0.0000

>  <Gold.PLP.Chemscore.Metal>  (1) 
0.0000

>  <Gold.Chemscore.Hbonds>  (1) 
donor molecule, donor type, donor heavy atom, donor atom, acceptor molecule, acceptor atom, score
      L1  H    17    41       P1  2763  1.00
      L1  H    23    44       P1   162  1.00
      L1  H    28    48       P1   162  1.00
      P1  H  1010  3830       L1    25  1.00
      P1  H  1815  4690       L1    17  0.94
      P1  H  1897  4785       L1    28  0.82

>  <Gold.PLP.Chemscore.Internal.Correction>  (1) 
2.2429

>  <Gold.Protein.RotatedTorsions>  (1) 
[ 3171  162  161  159 ] final -139.80 input   60.00 | X-H torsion
[ 3247  420  419  417 ] final   -5.66 input   60.00 | X-H torsion
[ 3540  714  713  710 ] final  149.45 input   60.00 | X-H torsion
[ 3551  720  719  716 ] final  158.06 input   60.00 | X-H torsion
[ 3830 1010 1009 1006 ] final   96.26 input   60.00 | X-H torsion
[ 3817 1031 1030 1027 ] final  156.62 input   60.00 | X-H torsion
[ 3884 1091 1090 1087 ] final -133.03 input   60.00 | X-H torsion
[ 4005 1211 1210 1207 ] final  151.20 input   60.00 | X-H torsion
[ 4176 1351 1350 1347 ] final   24.71 input   60.00 | X-H torsion
[ 4690 1815 1814 1812 ] final   66.95 input   60.00 | X-H torsion
[ 4701 1821 1820 1817 ] final  -14.70 input   60.00 | X-H torsion
[ 4725 1844 1843 1840 ] final   88.13 input   60.00 | X-H torsion
[ 5474 2607 2606 2603 ] final  -84.85 input   60.00 | X-H torsion
[ 5511 2623 2621 2617 ] final   24.82 input   60.00 | X-H torsion
[ 5505 2624 2622 2618 ] final   -7.55 input   59.99 | X-H torsion
[ 5524 2648 2646 2642 ] final  130.27 input   60.00 | X-H torsion
[ 5544 2649 2647 2643 ] final  -51.17 input   60.00 | X-H torsion
[ 5553 2686 2685 2683 ] final  -93.40 input   60.00 | X-H torsion
[ 5561 2705 2704 2702 ] final   68.33 input   59.99 | X-H torsion
[ 5577 2711 2710 2707 ] final  135.78 input   60.00 | X-H torsion
[ 5606 2755 2754 2752 ] final  107.63 input   60.00 | X-H torsion
[ 5604 2757 2756 2754 ] final   38.74 input   60.01 | X-H torsion
[ 4859 1952 1950 1946 ] final  -59.76 input   60.00 | X-H torsion
[ 4857 1953 1951 1947 ] final   52.68 input   60.00 | X-H torsion
[ 5455 2582 2581 2579 ] final -169.52 input   60.00 | X-H torsion
[ 3166  149  148  145 ] final   99.02 input   60.00 | X-H torsion
[ 3502  677  676  673 ] final  -33.17 input   60.00 | X-H torsion
[ 2900  385  384  381 ] final  125.75 input   60.00 | X-H torsion
[ 3700  857  856  853 ] final  -79.68 input   60.00 | X-H torsion
[ 3421  978  977  975 ] final  118.73 input   60.00 | X-H torsion
[ 5594 2732 2731 2729 ] final  -23.27 input   60.00 | X-H torsion
[ 5194 2288 2287 2285 ] final  -40.10 input   60.00 | X-H torsion
[ 3758  894  892  890 ] final -174.09 input   60.00 | X-H torsion
[ 3852 1048 1047 1046 ] final   78.01 input   59.99 | X-H torsion
[ 3922 1099 1100 1101 ] final -147.92 input   60.00 | X-H torsion
[ 4758 1881 1880 1879 ] final -178.68 input   60.00 | X-H torsion
[ 4560 1689 1687 1685 ] final  -63.98 input   60.00 | X-H torsion
[ 4591 1690 1688 1686 ] final  179.15 input   60.00 | X-H torsion

>  <Gold.Protein.ActiveResidues>  (1) 
PHE21   GLY22   THR23   TYR24   ALA25   PRO26   PRO27   GLU28   VAL29   PRO30  
 ARG31   ALA34   ASP50   SER51   ALA52   HIS53   LEU54   TYR55   ASN56   ASN57  
 GLU58   GLU59   GLN60   VAL61   THR82   SER83   LYS84   LEU85   TRP86   SER87  
 THR88   PHE89   HIS90   ALA98   ASN101  SER102  LYS105  LEU113  TYR114  LEU115 
 ILE116  HIS117  SER118  PRO119  MET120  SER121  LEU122  LYS123  PRO124  GLY125 
 GLU126  GLU127  LEU128  SER129  PRO130  ASN134  GLY135  LYS136  VAL137  ILE138 
 PHE139  ASP140  ILE141  VAL142  ASP143  LEU144  THR147  TRP148  MET151  GLY164 
 VAL165  SER166  ASN167  PHE168  ASN169  ARG170  ARG171  GLN172  LEU173  GLU174 
 MET175  ILE176  PRO186  CYS188  ASN189  GLN190  VAL191  GLU192  CYS193  HIS194 
 TYR196  PHE197  ASN198  ARG199  SER200  LYS201  LEU202  LEU203  PHE205  CYS206 
 ILE211  VAL212  LEU213  VAL214  ALA215  TYR216  SER217  ALA218  LEU219  GLY220 
 SER221  GLN222  ARG223  ASP224  LYS225  ARG226  TRP227  VAL228  ASP229  PRO230 
 SER232  LEU235  GLN260  ARG263  VAL265  VAL267  LEU268  ALA269  LYS270  TYR272 
 ASP300  ARG301  ASN302  LEU303  HIS304  TYR305  PHE306  ASN307  SER308  ASP309 
 SER310  PHE311  ALA312  SER313  HIS314  PRO315  ASN316  TYR317  PRO318  TYR319 
 SER320  ASP321  ACT500  NAP600

>  <Gold.Protein.RotatedAtoms>  (1) 
22.1567   37.0065   14.3709 H   0  0  0  0  0  0  0  0  0  0  0  0  # atno 2900 bound_to 385 
   23.4971   36.0722   11.6714 H   0  0  0  0  0  0  0  0  0  0  0  0  # atno 3166 bound_to 149 
   33.5324   34.0447   11.6002 H   0  0  0  0  0  0  0  0  0  0  0  0  # atno 3171 bound_to 162 
   25.9940   29.5001   13.5748 H   0  0  0  0  0  0  0  0  0  0  0  0  # atno 3247 bound_to 420 
   20.2866   31.9037   25.3322 H   0  0  0  0  0  0  0  0  0  0  0  0  # atno 3421 bound_to 978 
   21.0270   32.9299   19.2920 H   0  0  0  0  0  0  0  0  0  0  0  0  # atno 3502 bound_to 677 
   29.9321   25.6632   21.8353 H   0  0  0  0  0  0  0  0  0  0  0  0  # atno 3540 bound_to 714 
   30.2907   32.0844   26.9432 H   0  0  0  0  0  0  0  0  0  0  0  0  # atno 3551 bound_to 720 
   21.5277   35.8708   21.4430 H   0  0  0  0  0  0  0  0  0  0  0  0  # atno 3700 bound_to 857 
   26.8572   40.4116   22.5282 H   0  0  0  0  0  0  0  0  0  0  0  0  # atno 3758 bound_to 894 
   25.7657   39.2243   22.1455 H   0  0  0  0  0  0  0  0  0  0  0  0  # atno 3759 bound_to 894 
   26.2072   40.3431   21.0050 H   0  0  0  0  0  0  0  0  0  0  0  0  # atno 3760 bound_to 894 
   28.8840   20.6497   28.2027 H   0  0  0  0  0  0  0  0  0  0  0  0  # atno 3817 bound_to 1031
   29.5040   21.9533   18.8239 H   0  0  0  0  0  0  0  0  0  0  0  0  # atno 3830 bound_to 1010
   39.3696   31.1587   32.1848 H   0  0  0  0  0  0  0  0  0  0  0  0  # atno 3852 bound_to 1048
   39.4877   30.8942   33.8168 H   0  0  0  0  0  0  0  0  0  0  0  0  # atno 3853 bound_to 1048
   39.9126   29.6985   32.7505 H   0  0  0  0  0  0  0  0  0  0  0  0  # atno 3854 bound_to 1048
   36.8557   30.2667   19.9291 H   0  0  0  0  0  0  0  0  0  0  0  0  # atno 3884 bound_to 1091
   45.9252   31.7485   28.5116 H   0  0  0  0  0  0  0  0  0  0  0  0  # atno 3922 bound_to 1099
   45.4276   30.5647   29.5595 H   0  0  0  0  0  0  0  0  0  0  0  0  # atno 3923 bound_to 1099
   24.0170   21.6267   28.8557 H   0  0  0  0  0  0  0  0  0  0  0  0  # atno 4005 bound_to 1211
   23.5344   22.7287   14.8181 H   0  0  0  0  0  0  0  0  0  0  0  0  # atno 4176 bound_to 1351
   26.8152    5.7473    8.7090 H   0  0  0  0  0  0  0  0  0  0  0  0  # atno 4560 bound_to 1689
   25.7659    7.0289    8.6506 H   0  0  0  0  0  0  0  0  0  0  0  0  # atno 4561 bound_to 1689
   27.0972    7.0920    9.6359 H   0  0  0  0  0  0  0  0  0  0  0  0  # atno 4562 bound_to 1689
   26.5053    5.9270    9.9973 H   0  0  0  0  0  0  0  0  0  0  0  0  # atno 4591 bound_to 1690
   25.1913    6.8804   10.3316 H   0  0  0  0  0  0  0  0  0  0  0  0  # atno 4592 bound_to 1690
   25.8027    5.8732   11.4975 H   0  0  0  0  0  0  0  0  0  0  0  0  # atno 4593 bound_to 1690
   29.0278   22.9058   12.3697 H   0  0  0  0  0  0  0  0  0  0  0  0  # atno 4690 bound_to 1815
   28.4373   25.7507    6.7003 H   0  0  0  0  0  0  0  0  0  0  0  0  # atno 4701 bound_to 1821
   33.4981   26.4525    4.7399 H   0  0  0  0  0  0  0  0  0  0  0  0  # atno 4725 bound_to 1844
   41.0477   29.0863    1.2455 H   0  0  0  0  0  0  0  0  0  0  0  0  # atno 4758 bound_to 1881
   41.7732   27.9143    2.1661 H   0  0  0  0  0  0  0  0  0  0  0  0  # atno 4759 bound_to 1881
   40.2961   28.5208    2.6103 H   0  0  0  0  0  0  0  0  0  0  0  0  # atno 4760 bound_to 1881
   39.5591   20.6628    3.3557 H   0  0  0  0  0  0  0  0  0  0  0  0  # atno 4857 bound_to 1953
   38.6527   22.5278    2.1630 H   0  0  0  0  0  0  0  0  0  0  0  0  # atno 4859 bound_to 1952
   25.1461   38.4248    8.3220 H   0  0  0  0  0  0  0  0  0  0  0  0  # atno 5194 bound_to 2288
   32.1284   20.7323   -0.0738 H   0  0  0  0  0  0  0  0  0  0  0  0  # atno 5455 bound_to 2582
   40.6441   23.5407   15.5998 H   0  0  0  0  0  0  0  0  0  0  0  0  # atno 5474 bound_to 2607
   42.1818   24.9800   17.4493 H   0  0  0  0  0  0  0  0  0  0  0  0  # atno 5505 bound_to 2624
   38.8930   24.0402   17.1169 H   0  0  0  0  0  0  0  0  0  0  0  0  # atno 5511 bound_to 2623
   41.9128   18.0779   22.5373 H   0  0  0  0  0  0  0  0  0  0  0  0  # atno 5524 bound_to 2648
   41.7671   15.0533   20.6322 H   0  0  0  0  0  0  0  0  0  0  0  0  # atno 5544 bound_to 2649
   34.9771   15.8748   13.3774 H   0  0  0  0  0  0  0  0  0  0  0  0  # atno 5553 bound_to 2686
   28.9753   18.6058   12.3739 H   0  0  0  0  0  0  0  0  0  0  0  0  # atno 5561 bound_to 2705
   30.9885    8.0776   15.8726 H   0  0  0  0  0  0  0  0  0  0  0  0  # atno 5577 bound_to 2711
   30.4286   31.6127    2.2393 H   0  0  0  0  0  0  0  0  0  0  0  0  # atno 5594 bound_to 2732
   23.0665   30.7518    9.0400 H   0  0  0  0  0  0  0  0  0  0  0  0  # atno 5604 bound_to 2757
   24.9483   32.1605    8.7125 H   0  0  0  0  0  0  0  0  0  0  0  0  # atno 5606 bound_to 2755
   33.3079   32.8473   12.6792 LP  0  0  0  0  0  0  0  0  0  0  0  0  # atno 5611 bound_to 162 
   32.9631   34.3911   13.0848 LP  0  0  0  0  0  0  0  0  0  0  0  0  # atno 5612 bound_to 162 
   25.0659   29.9980   12.3344 LP  0  0  0  0  0  0  0  0  0  0  0  0  # atno 5623 bound_to 420 
   24.4243   29.8461   13.8283 LP  0  0  0  0  0  0  0  0  0  0  0  0  # atno 5624 bound_to 420 
   28.5337   26.3712   22.2728 LP  0  0  0  0  0  0  0  0  0  0  0  0  # atno 5635 bound_to 714 
   28.7998   24.7982   22.6214 LP  0  0  0  0  0  0  0  0  0  0  0  0  # atno 5636 bound_to 714 
   29.0377   31.0490   27.0216 LP  0  0  0  0  0  0  0  0  0  0  0  0  # atno 5639 bound_to 720 
   30.0583   31.0052   25.7476 LP  0  0  0  0  0  0  0  0  0  0  0  0  # atno 5640 bound_to 720 
   28.9984   21.5391   20.3143 LP  0  0  0  0  0  0  0  0  0  0  0  0  # atno 5657 bound_to 1010
   30.1895   22.6409   20.1299 LP  0  0  0  0  0  0  0  0  0  0  0  0  # atno 5658 bound_to 1010
   29.0591   20.8998   26.6043 LP  0  0  0  0  0  0  0  0  0  0  0  0  # atno 5665 bound_to 1031
   28.1596   21.9265   27.5006 LP  0  0  0  0  0  0  0  0  0  0  0  0  # atno 5666 bound_to 1031
   36.8280   31.8642   20.2379 LP  0  0  0  0  0  0  0  0  0  0  0  0  # atno 5671 bound_to 1091
   35.7175   30.8788   20.9180 LP  0  0  0  0  0  0  0  0  0  0  0  0  # atno 5672 bound_to 1091
   23.2687   21.5421   30.2982 LP  0  0  0  0  0  0  0  0  0  0  0  0  # atno 5687 bound_to 1211
   23.7836   22.9821   29.7255 LP  0  0  0  0  0  0  0  0  0  0  0  0  # atno 5688 bound_to 1211
   24.5802   23.6143   15.6957 LP  0  0  0  0  0  0  0  0  0  0  0  0  # atno 5695 bound_to 1351
   23.3180   24.3359   14.9523 LP  0  0  0  0  0  0  0  0  0  0  0  0  # atno 5696 bound_to 1351
   28.8118   21.5284   11.5304 LP  0  0  0  0  0  0  0  0  0  0  0  0  # atno 5744 bound_to 1815
   27.9087   21.8297   12.8572 LP  0  0  0  0  0  0  0  0  0  0  0  0  # atno 5745 bound_to 1815
   29.8540   24.9523    6.6403 LP  0  0  0  0  0  0  0  0  0  0  0  0  # atno 5748 bound_to 1821
   28.6719   24.4490    7.6482 LP  0  0  0  0  0  0  0  0  0  0  0  0  # atno 5749 bound_to 1821
   33.0298   25.7188    3.3650 LP  0  0  0  0  0  0  0  0  0  0  0  0  # atno 5750 bound_to 1844
   33.5368   24.8289    4.6369 LP  0  0  0  0  0  0  0  0  0  0  0  0  # atno 5751 bound_to 1844
   40.8053   24.7075   14.4770 LP  0  0  0  0  0  0  0  0  0  0  0  0  # atno 5779 bound_to 2607
   41.6981   23.3439   14.3758 LP  0  0  0  0  0  0  0  0  0  0  0  0  # atno 5780 bound_to 2607
   39.8824   24.8362   16.0993 LP  0  0  0  0  0  0  0  0  0  0  0  0  # atno 5787 bound_to 2623
   38.9644   25.6652   17.1654 LP  0  0  0  0  0  0  0  0  0  0  0  0  # atno 5788 bound_to 2623
   41.3154   26.3494   17.5984 LP  0  0  0  0  0  0  0  0  0  0  0  0  # atno 5789 bound_to 2624
   41.2355   25.4752   16.2215 LP  0  0  0  0  0  0  0  0  0  0  0  0  # atno 5790 bound_to 2624
   40.5842   18.5453   21.7222 LP  0  0  0  0  0  0  0  0  0  0  0  0  # atno 5797 bound_to 2648
   42.0239   18.4514   20.9574 LP  0  0  0  0  0  0  0  0  0  0  0  0  # atno 5798 bound_to 2648
   42.9891   16.0742   20.9678 LP  0  0  0  0  0  0  0  0  0  0  0  0  # atno 5799 bound_to 2649
   42.0665   16.3086   19.6409 LP  0  0  0  0  0  0  0  0  0  0  0  0  # atno 5800 bound_to 2649
   36.5233   15.5542   13.7704 LP  0  0  0  0  0  0  0  0  0  0  0  0  # atno 5812 bound_to 2686
   36.0134   17.1005   13.6454 LP  0  0  0  0  0  0  0  0  0  0  0  0  # atno 5813 bound_to 2686
   29.0884   17.9284   10.8987 LP  0  0  0  0  0  0  0  0  0  0  0  0  # atno 5818 bound_to 2705
   30.2012   19.0193   11.3869 LP  0  0  0  0  0  0  0  0  0  0  0  0  # atno 5819 bound_to 2705
   31.8642    9.2647   16.5595 LP  0  0  0  0  0  0  0  0  0  0  0  0  # atno 5822 bound_to 2711
   32.3033    7.7041   16.7556 LP  0  0  0  0  0  0  0  0  0  0  0  0  # atno 5823 bound_to 2711
   25.0106   31.6255    7.1770 LP  0  0  0  0  0  0  0  0  0  0  0  0  # atno 5834 bound_to 2755
   26.3897   31.8611    8.0191 LP  0  0  0  0  0  0  0  0  0  0  0  0  # atno 5835 bound_to 2755
   23.7309   31.7796   10.1124 LP  0  0  0  0  0  0  0  0  0  0  0  0  # atno 5836 bound_to 2757
   22.9141   30.4655   10.6346 LP  0  0  0  0  0  0  0  0  0  0  0  0  # atno 5837 bound_to 2757
   37.2078   22.1819    2.8269 LP  0  0  0  0  0  0  0  0  0  0  0  0  # atno 5858 bound_to 1952
   37.3697   22.2435    1.2032 LP  0  0  0  0  0  0  0  0  0  0  0  0  # atno 5859 bound_to 1952
   38.6747   19.2973    3.3232 LP  0  0  0  0  0  0  0  0  0  0  0  0  # atno 5860 bound_to 1953
   38.0435   20.6675    3.9482 LP  0  0  0  0  0  0  0  0  0  0  0  0  # atno 5861 bound_to 1953
   33.5705   19.9787   -0.0504 LP  0  0  0  0  0  0  0  0  0  0  0  0  # atno 5878 bound_to 2582
   33.4805   21.5640   -0.4317 LP  0  0  0  0  0  0  0  0  0  0  0  0  # atno 5879 bound_to 2582
   23.1780   34.6011   11.0534 LP  0  0  0  0  0  0  0  0  0  0  0  0  # atno 5896 bound_to 149 
   21.9624   35.5338   11.6181 LP  0  0  0  0  0  0  0  0  0  0  0  0  # atno 5897 bound_to 149 
   20.4917   34.2045   20.1504 LP  0  0  0  0  0  0  0  0  0  0  0  0  # atno 5903 bound_to 677 
   20.8737   34.3814   18.5726 LP  0  0  0  0  0  0  0  0  0  0  0  0  # atno 5904 bound_to 677 
   22.9086   35.6453   14.8501 LP  0  0  0  0  0  0  0  0  0  0  0  0  # atno 5911 bound_to 385 
   21.8400   36.3831   15.8402 LP  0  0  0  0  0  0  0  0  0  0  0  0  # atno 5912 bound_to 385 
   21.0639   34.5788   22.3166 LP  0  0  0  0  0  0  0  0  0  0  0  0  # atno 5923 bound_to 857 
   21.6821   35.8933   23.0627 LP  0  0  0  0  0  0  0  0  0  0  0  0  # atno 5924 bound_to 857 
   21.0477   32.1050   23.9079 LP  0  0  0  0  0  0  0  0  0  0  0  0  # atno 5925 bound_to 978 
   21.2545   30.7273   24.7598 LP  0  0  0  0  0  0  0  0  0  0  0  0  # atno 5926 bound_to 978 
   29.4704   32.8452    2.6987 LP  0  0  0  0  0  0  0  0  0  0  0  0  # atno 5937 bound_to 2732
   30.2851   32.9234    1.2856 LP  0  0  0  0  0  0  0  0  0  0  0  0  # atno 5938 bound_to 2732
   26.2278   39.6171    8.5601 LP  0  0  0  0  0  0  0  0  0  0  0  0  # atno 5947 bound_to 2288
   26.7024   38.0558    8.6219 LP  0  0  0  0  0  0  0  0  0  0  0  0  # atno 5948 bound_to 2288
   46.9668   30.5635   28.9782 LP  0  0  0  0  0  0  0  0  0  0  0  0  # atno 5987 bound_to 1099

>  <Dataset Name>  (1) 
Dataset 1

$$$$
BnDHC52|AKR1C3_BnDHCs|sdf|50|dock10
     RDKit          3D

 29 31  0  0  0  0  0  0  0  0999 V2000
   37.1597   26.5727   18.9940 F   0  0  0  0  0  0  0  0  0  0  0  0
   36.1119   26.0105   19.6128 C   0  0  0  0  0  0  0  0  0  0  0  0
   34.8517   26.6055   19.5498 C   0  0  0  0  0  0  0  0  0  0  0  0
   36.2877   24.8228   20.3227 C   0  0  0  0  0  0  0  0  0  0  0  0
   33.7673   26.0124   20.1967 C   0  0  0  0  0  0  0  0  0  0  0  0
   34.6579   27.8888   18.7838 C   0  0  0  0  0  0  0  0  0  0  0  0
   35.2033   24.2299   20.9699 C   0  0  0  0  0  0  0  0  0  0  0  0
   33.9430   24.8248   20.9068 C   0  0  0  0  0  0  0  0  0  0  0  0
   33.5478   27.7616   17.7381 C   0  0  0  0  0  0  0  0  0  0  0  0
   35.3722   23.0897   21.6522 F   0  0  0  0  0  0  0  0  0  0  0  0
   33.8454   26.7038   16.6619 C   0  0  0  0  0  0  0  0  0  0  0  0
   35.0216   26.3453   16.4608 O   0  0  0  0  0  0  0  0  0  0  0  0
   32.7512   26.1295   15.8876 C   0  0  0  0  0  0  0  0  0  0  0  0
   32.1393   24.9498   16.3118 C   0  0  0  0  0  0  0  0  0  0  0  0
   32.3165   26.7606   14.7222 C   0  0  0  0  0  0  0  0  0  0  0  0
   32.5622   24.3302   17.4522 O   0  0  0  0  0  0  0  0  0  0  0  0
   31.0929   24.4012   15.5702 C   0  0  0  0  0  0  0  0  0  0  0  0
   32.9012   27.9134   14.2888 O   0  0  0  0  0  0  0  0  0  0  0  0
   31.2701   26.2121   13.9806 C   0  0  0  0  0  0  0  0  0  0  0  0
   30.6583   25.0326   14.4047 C   0  0  0  0  0  0  0  0  0  0  0  0
   30.4350   23.1373   16.0233 C   0  0  0  0  0  0  0  0  0  0  0  0
   29.6372   24.5119   13.6680 O   0  0  0  0  0  0  0  0  0  0  0  0
   31.1584   21.8813   15.5859 C   0  0  0  0  0  0  0  0  0  0  0  0
   31.0125   20.6902   16.2976 C   0  0  0  0  0  0  0  0  0  0  0  0
   31.9776   21.9240   14.4579 C   0  0  0  0  0  0  0  0  0  0  0  0
   30.2157   20.6311   17.4015 O   0  0  0  0  0  0  0  0  0  0  0  0
   31.6860   19.5419   15.8808 C   0  0  0  0  0  0  0  0  0  0  0  0
   32.6509   20.7756   14.0412 C   0  0  0  0  0  0  0  0  0  0  0  0
   32.5053   19.5846   14.7526 C   0  0  0  0  0  0  0  0  0  0  0  0
  1  2  1  0
  2  3  2  0
  2  4  1  0
  3  5  1  0
  3  6  1  0
  4  7  2  0
  5  8  2  0
  6  9  1  0
  7 10  1  0
  9 11  1  0
 11 12  2  0
 11 13  1  0
 13 14  2  0
 13 15  1  0
 14 16  1  0
 14 17  1  0
 15 18  1  0
 15 19  2  0
 17 20  2  0
 17 21  1  0
 20 22  1  0
 21 23  1  0
 23 24  2  0
 23 25  1  0
 24 26  1  0
 24 27  1  0
 25 28  2  0
 27 29  2  0
  7  8  1  0
 19 20  1  0
 28 29  1  0
M  END
>  <Molecule Name>  (2) 
BnDHC52|AKR1C3_BnDHCs|sdf|50|dock10

>  <Molecule Name 2>  (2) 
BnDHC52

>  <Molecule Name 3>  (2) 
BnDHC52

>  <Gold.Version>  (2) 
5.8.1

>  <Gold.Id.Protein>  (2) 
1ZQ5|1ZQ5_protein|mol2

>  <Gold.PLP.Fitness>  (2) 
100.7214

>  <Gold.PLP.PLP>  (2) 
-94.5791

>  <Gold.PLP.part.hbond>  (2) 
-3.0000

>  <Gold.PLP.part.metal>  (2) 
0.0000

>  <Gold.PLP.part.buried>  (2) 
-6.5570

>  <Gold.PLP.part.nonpolar>  (2) 
-85.2731

>  <Gold.PLP.part.repulsive>  (2) 
0.0000

>  <Gold.PLP.ligand.clash>  (2) 
0.0000

>  <Gold.PLP.ligand.torsion>  (2) 
2.5111

>  <Gold.PLP.Chemscore.Hbond>  (2) 
3.0000

>  <Gold.PLP.Chemscore.CHOScore>  (2) 
0.0000

>  <Gold.PLP.Chemscore.Metal>  (2) 
0.0000

>  <Gold.Chemscore.Hbonds>  (2) 
donor molecule, donor type, donor heavy atom, donor atom, acceptor molecule, acceptor atom, score
      L1  H    22    42       P1  2763  1.00
      P1  H  1010  3830       L1    26  1.00
      P1  H  1815  4690       L1    22  1.00

>  <Gold.PLP.Chemscore.Internal.Correction>  (2) 
2.1646

>  <Gold.Protein.RotatedTorsions>  (2) 
[ 3171  162  161  159 ] final  122.44 input   60.00 | X-H torsion
[ 3247  420  419  417 ] final   50.50 input   60.00 | X-H torsion
[ 3540  714  713  710 ] final  -56.76 input   60.00 | X-H torsion
[ 3551  720  719  716 ] final  158.64 input   60.00 | X-H torsion
[ 3830 1010 1009 1006 ] final   77.36 input   60.00 | X-H torsion
[ 3817 1031 1030 1027 ] final  138.28 input   60.00 | X-H torsion
[ 3884 1091 1090 1087 ] final  175.31 input   60.00 | X-H torsion
[ 4005 1211 1210 1207 ] final -124.73 input   60.00 | X-H torsion
[ 4176 1351 1350 1347 ] final  171.71 input   60.00 | X-H torsion
[ 4690 1815 1814 1812 ] final   79.10 input   60.00 | X-H torsion
[ 4701 1821 1820 1817 ] final   60.64 input   60.00 | X-H torsion
[ 4725 1844 1843 1840 ] final  114.54 input   60.00 | X-H torsion
[ 5474 2607 2606 2603 ] final -156.12 input   60.00 | X-H torsion
[ 5511 2623 2621 2617 ] final  134.88 input   60.00 | X-H torsion
[ 5505 2624 2622 2618 ] final  123.02 input   59.99 | X-H torsion
[ 5524 2648 2646 2642 ] final  167.98 input   60.00 | X-H torsion
[ 5544 2649 2647 2643 ] final -104.99 input   60.00 | X-H torsion
[ 5553 2686 2685 2683 ] final  -92.65 input   60.00 | X-H torsion
[ 5561 2705 2704 2702 ] final  -57.53 input   59.99 | X-H torsion
[ 5577 2711 2710 2707 ] final   49.92 input   60.00 | X-H torsion
[ 5606 2755 2754 2752 ] final  112.19 input   60.00 | X-H torsion
[ 5604 2757 2756 2754 ] final    1.75 input   60.01 | X-H torsion
[ 4859 1952 1950 1946 ] final -110.06 input   60.00 | X-H torsion
[ 4857 1953 1951 1947 ] final  -54.41 input   60.00 | X-H torsion
[ 5455 2582 2581 2579 ] final  -50.29 input   60.00 | X-H torsion
[ 3166  149  148  145 ] final   41.97 input   60.00 | X-H torsion
[ 3502  677  676  673 ] final  -76.55 input   60.00 | X-H torsion
[ 2900  385  384  381 ] final  -88.78 input   60.00 | X-H torsion
[ 3700  857  856  853 ] final  -60.04 input   60.00 | X-H torsion
[ 3421  978  977  975 ] final  155.35 input   60.00 | X-H torsion
[ 5594 2732 2731 2729 ] final  -81.41 input   60.00 | X-H torsion
[ 5194 2288 2287 2285 ] final -107.16 input   60.00 | X-H torsion
[ 3758  894  892  890 ] final  -55.27 input   60.00 | X-H torsion
[ 3852 1048 1047 1046 ] final   79.55 input   59.99 | X-H torsion
[ 3922 1099 1100 1101 ] final -119.94 input   60.00 | X-H torsion
[ 4758 1881 1880 1879 ] final   30.44 input   60.00 | X-H torsion
[ 4560 1689 1687 1685 ] final  -38.59 input   60.00 | X-H torsion
[ 4591 1690 1688 1686 ] final   49.44 input   60.00 | X-H torsion

>  <Gold.Protein.ActiveResidues>  (2) 
PHE21   GLY22   THR23   TYR24   ALA25   PRO26   PRO27   GLU28   VAL29   PRO30  
 ARG31   ALA34   ASP50   SER51   ALA52   HIS53   LEU54   TYR55   ASN56   ASN57  
 GLU58   GLU59   GLN60   VAL61   THR82   SER83   LYS84   LEU85   TRP86   SER87  
 THR88   PHE89   HIS90   ALA98   ASN101  SER102  LYS105  LEU113  TYR114  LEU115 
 ILE116  HIS117  SER118  PRO119  MET120  SER121  LEU122  LYS123  PRO124  GLY125 
 GLU126  GLU127  LEU128  SER129  PRO130  ASN134  GLY135  LYS136  VAL137  ILE138 
 PHE139  ASP140  ILE141  VAL142  ASP143  LEU144  THR147  TRP148  MET151  GLY164 
 VAL165  SER166  ASN167  PHE168  ASN169  ARG170  ARG171  GLN172  LEU173  GLU174 
 MET175  ILE176  PRO186  CYS188  ASN189  GLN190  VAL191  GLU192  CYS193  HIS194 
 TYR196  PHE197  ASN198  ARG199  SER200  LYS201  LEU202  LEU203  PHE205  CYS206 
 ILE211  VAL212  LEU213  VAL214  ALA215  TYR216  SER217  ALA218  LEU219  GLY220 
 SER221  GLN222  ARG223  ASP224  LYS225  ARG226  TRP227  VAL228  ASP229  PRO230 
 SER232  LEU235  GLN260  ARG263  VAL265  VAL267  LEU268  ALA269  LYS270  TYR272 
 ASP300  ARG301  ASN302  LEU303  HIS304  TYR305  PHE306  ASN307  SER308  ASP309 
 SER310  PHE311  ALA312  SER313  HIS314  PRO315  ASN316  TYR317  PRO318  TYR319 
 SER320  ASP321  ACT500  NAP600

>  <Gold.Protein.RotatedAtoms>  (2) 
22.0714   36.0409   15.8734 H   0  0  0  0  0  0  0  0  0  0  0  0  # atno 2900 bound_to 385 
   23.8007   35.3191   11.2973 H   0  0  0  0  0  0  0  0  0  0  0  0  # atno 3166 bound_to 149 
   33.4270   32.8462   12.3370 H   0  0  0  0  0  0  0  0  0  0  0  0  # atno 3171 bound_to 162 
   25.3207   29.5528   14.1409 H   0  0  0  0  0  0  0  0  0  0  0  0  # atno 3247 bound_to 420 
   20.4707   31.3682   25.4924 H   0  0  0  0  0  0  0  0  0  0  0  0  # atno 3421 bound_to 978 
   20.8136   33.1077   19.9258 H   0  0  0  0  0  0  0  0  0  0  0  0  # atno 3502 bound_to 677 
   28.4041   25.1667   22.6982 H   0  0  0  0  0  0  0  0  0  0  0  0  # atno 3540 bound_to 714 
   30.2965   32.0841   26.9358 H   0  0  0  0  0  0  0  0  0  0  0  0  # atno 3551 bound_to 720 
   21.6407   36.0996   21.6350 H   0  0  0  0  0  0  0  0  0  0  0  0  # atno 3700 bound_to 857 
   25.7735   39.2252   22.1636 H   0  0  0  0  0  0  0  0  0  0  0  0  # atno 3758 bound_to 894 
   26.1941   40.3288   21.0006 H   0  0  0  0  0  0  0  0  0  0  0  0  # atno 3759 bound_to 894 
   26.8623   40.4247   22.5144 H   0  0  0  0  0  0  0  0  0  0  0  0  # atno 3760 bound_to 894 
   29.0371   20.4903   28.0021 H   0  0  0  0  0  0  0  0  0  0  0  0  # atno 3817 bound_to 1031
   29.2860   21.7537   18.9083 H   0  0  0  0  0  0  0  0  0  0  0  0  # atno 3830 bound_to 1010
   39.3631   31.1771   32.2016 H   0  0  0  0  0  0  0  0  0  0  0  0  # atno 3852 bound_to 1048
   39.4961   30.8714   33.8253 H   0  0  0  0  0  0  0  0  0  0  0  0  # atno 3853 bound_to 1048
   39.9107   29.7030   32.7252 H   0  0  0  0  0  0  0  0  0  0  0  0  # atno 3854 bound_to 1048
   37.2083   30.9886   19.7876 H   0  0  0  0  0  0  0  0  0  0  0  0  # atno 3884 bound_to 1091
   45.5262   31.6573   28.7273 H   0  0  0  0  0  0  0  0  0  0  0  0  # atno 3922 bound_to 1099
   45.7935   30.2888   29.6234 H   0  0  0  0  0  0  0  0  0  0  0  0  # atno 3923 bound_to 1099
   24.0167   22.8269   29.2180 H   0  0  0  0  0  0  0  0  0  0  0  0  # atno 4005 bound_to 1211
   23.6458   24.4778   15.2069 H   0  0  0  0  0  0  0  0  0  0  0  0  # atno 4176 bound_to 1351
   26.4609    5.8162    8.4930 H   0  0  0  0  0  0  0  0  0  0  0  0  # atno 4560 bound_to 1689
   25.9123    7.3226    8.9136 H   0  0  0  0  0  0  0  0  0  0  0  0  # atno 4561 bound_to 1689
   27.3050    6.7294    9.5888 H   0  0  0  0  0  0  0  0  0  0  0  0  # atno 4562 bound_to 1689
   25.6752    5.9710   11.5173 H   0  0  0  0  0  0  0  0  0  0  0  0  # atno 4591 bound_to 1690
   26.5553    5.8331   10.1196 H   0  0  0  0  0  0  0  0  0  0  0  0  # atno 4592 bound_to 1690
   25.2691    6.8762   10.1896 H   0  0  0  0  0  0  0  0  0  0  0  0  # atno 4593 bound_to 1690
   28.9089   22.9239   12.5271 H   0  0  0  0  0  0  0  0  0  0  0  0  # atno 4690 bound_to 1815
   28.1914   24.9492    7.4791 H   0  0  0  0  0  0  0  0  0  0  0  0  # atno 4701 bound_to 1821
   33.6124   26.1437    5.0130 H   0  0  0  0  0  0  0  0  0  0  0  0  # atno 4725 bound_to 1844
   40.6165   28.1715    2.7976 H   0  0  0  0  0  0  0  0  0  0  0  0  # atno 4758 bound_to 1881
   40.6086   29.1838    1.4852 H   0  0  0  0  0  0  0  0  0  0  0  0  # atno 4759 bound_to 1881
   41.8918   28.1660    1.7391 H   0  0  0  0  0  0  0  0  0  0  0  0  # atno 4760 bound_to 1881
   38.8716   19.3270    3.2524 H   0  0  0  0  0  0  0  0  0  0  0  0  # atno 4857 bound_to 1953
   38.2537   22.4244    2.8437 H   0  0  0  0  0  0  0  0  0  0  0  0  # atno 4859 bound_to 1952
   25.4310   39.4162    8.3976 H   0  0  0  0  0  0  0  0  0  0  0  0  # atno 5194 bound_to 2288
   33.4667   21.5647   -0.4278 H   0  0  0  0  0  0  0  0  0  0  0  0  # atno 5455 bound_to 2582
   40.4329   24.4996   15.1244 H   0  0  0  0  0  0  0  0  0  0  0  0  # atno 5474 bound_to 2607
   41.1502   25.6213   16.2586 H   0  0  0  0  0  0  0  0  0  0  0  0  # atno 5505 bound_to 2624
   38.8739   25.5678   17.2596 H   0  0  0  0  0  0  0  0  0  0  0  0  # atno 5511 bound_to 2623
   42.3332   18.1031   22.1025 H   0  0  0  0  0  0  0  0  0  0  0  0  # atno 5524 bound_to 2648
   42.4010   15.2554   21.1573 H   0  0  0  0  0  0  0  0  0  0  0  0  # atno 5544 bound_to 2649
   34.9733   15.8865   13.3764 H   0  0  0  0  0  0  0  0  0  0  0  0  # atno 5553 bound_to 2686
   29.1658   17.9581   10.8495 H   0  0  0  0  0  0  0  0  0  0  0  0  # atno 5561 bound_to 2705
   31.4140    9.2210   16.2435 H   0  0  0  0  0  0  0  0  0  0  0  0  # atno 5577 bound_to 2711
   29.8583   31.9736    2.8494 H   0  0  0  0  0  0  0  0  0  0  0  0  # atno 5594 bound_to 2732
   23.3828   31.2545    9.0384 H   0  0  0  0  0  0  0  0  0  0  0  0  # atno 5604 bound_to 2757
   25.0127   32.1704    8.7486 H   0  0  0  0  0  0  0  0  0  0  0  0  # atno 5606 bound_to 2755
   32.9359   34.0823   13.2747 LP  0  0  0  0  0  0  0  0  0  0  0  0  # atno 5611 bound_to 162 
   33.4412   34.3630   11.7474 LP  0  0  0  0  0  0  0  0  0  0  0  0  # atno 5612 bound_to 162 
   25.8642   29.7335   12.6177 LP  0  0  0  0  0  0  0  0  0  0  0  0  # atno 5623 bound_to 420 
   24.3040   30.0575   12.9749 LP  0  0  0  0  0  0  0  0  0  0  0  0  # atno 5624 bound_to 420 
   29.8794   25.1490   22.0117 LP  0  0  0  0  0  0  0  0  0  0  0  0  # atno 5635 bound_to 714 
   28.9929   26.5204   22.0134 LP  0  0  0  0  0  0  0  0  0  0  0  0  # atno 5636 bound_to 714 
   29.0391   31.0553   27.0285 LP  0  0  0  0  0  0  0  0  0  0  0  0  # atno 5639 bound_to 720 
   30.0509   30.9991   25.7481 LP  0  0  0  0  0  0  0  0  0  0  0  0  # atno 5640 bound_to 720 
   29.1568   21.6953   20.5295 LP  0  0  0  0  0  0  0  0  0  0  0  0  # atno 5657 bound_to 1010
   30.2506   22.6857   19.8298 LP  0  0  0  0  0  0  0  0  0  0  0  0  # atno 5658 bound_to 1010
   28.9093   21.1458   26.5182 LP  0  0  0  0  0  0  0  0  0  0  0  0  # atno 5665 bound_to 1031
   28.1552   21.8411   27.7888 LP  0  0  0  0  0  0  0  0  0  0  0  0  # atno 5666 bound_to 1031
   36.1752   31.8161   20.7343 LP  0  0  0  0  0  0  0  0  0  0  0  0  # atno 5671 bound_to 1091
   36.0153   30.1999   20.5641 LP  0  0  0  0  0  0  0  0  0  0  0  0  # atno 5672 bound_to 1091
   23.7840   21.2165   29.1925 LP  0  0  0  0  0  0  0  0  0  0  0  0  # atno 5687 bound_to 1211
   23.2686   22.0989   30.4663 LP  0  0  0  0  0  0  0  0  0  0  0  0  # atno 5688 bound_to 1211
   23.2331   23.0032   14.6561 LP  0  0  0  0  0  0  0  0  0  0  0  0  # atno 5695 bound_to 1351
   24.5529   23.1854   15.6004 LP  0  0  0  0  0  0  0  0  0  0  0  0  # atno 5696 bound_to 1351
   28.9433   21.6724   11.4877 LP  0  0  0  0  0  0  0  0  0  0  0  0  # atno 5744 bound_to 1815
   27.8970   21.6676   12.7414 LP  0  0  0  0  0  0  0  0  0  0  0  0  # atno 5745 bound_to 1815
   29.0734   25.7580    6.3764 LP  0  0  0  0  0  0  0  0  0  0  0  0  # atno 5748 bound_to 1821
   29.7000   24.4506    7.1279 LP  0  0  0  0  0  0  0  0  0  0  0  0  # atno 5749 bound_to 1821
   33.0548   26.1320    3.4843 LP  0  0  0  0  0  0  0  0  0  0  0  0  # atno 5750 bound_to 1844
   33.3968   24.7267    4.2425 LP  0  0  0  0  0  0  0  0  0  0  0  0  # atno 5751 bound_to 1844
   41.5476   24.0277   14.0367 LP  0  0  0  0  0  0  0  0  0  0  0  0  # atno 5779 bound_to 2607
   41.1685   23.0581   15.2948 LP  0  0  0  0  0  0  0  0  0  0  0  0  # atno 5780 bound_to 2607
   38.9857   23.9642   17.0065 LP  0  0  0  0  0  0  0  0  0  0  0  0  # atno 5787 bound_to 2623
   39.8804   24.9988   16.1145 LP  0  0  0  0  0  0  0  0  0  0  0  0  # atno 5788 bound_to 2623
   42.1690   24.8949   17.2990 LP  0  0  0  0  0  0  0  0  0  0  0  0  # atno 5789 bound_to 2624
   41.4207   26.2839   17.7200 LP  0  0  0  0  0  0  0  0  0  0  0  0  # atno 5790 bound_to 2624
   40.7392   18.3744   22.2864 LP  0  0  0  0  0  0  0  0  0  0  0  0  # atno 5797 bound_to 2648
   41.4457   18.5969   20.8310 LP  0  0  0  0  0  0  0  0  0  0  0  0  # atno 5798 bound_to 2648
   42.8364   16.5540   20.2787 LP  0  0  0  0  0  0  0  0  0  0  0  0  # atno 5799 bound_to 2649
   41.5809   15.6253   19.8013 LP  0  0  0  0  0  0  0  0  0  0  0  0  # atno 5800 bound_to 2649
   36.5154   15.5449   13.7683 LP  0  0  0  0  0  0  0  0  0  0  0  0  # atno 5812 bound_to 2686
   36.0252   17.0980   13.6484 LP  0  0  0  0  0  0  0  0  0  0  0  0  # atno 5813 bound_to 2686
   30.1901   19.0568   11.4751 LP  0  0  0  0  0  0  0  0  0  0  0  0  # atno 5818 bound_to 2705
   28.9076   18.5433   12.3458 LP  0  0  0  0  0  0  0  0  0  0  0  0  # atno 5819 bound_to 2705
   32.4880    8.2005   16.9167 LP  0  0  0  0  0  0  0  0  0  0  0  0  # atno 5822 bound_to 2711
   31.2510    7.6168   16.0248 LP  0  0  0  0  0  0  0  0  0  0  0  0  # atno 5823 bound_to 2711
   24.9457   31.6402    7.2115 LP  0  0  0  0  0  0  0  0  0  0  0  0  # atno 5834 bound_to 2755
   26.3897   31.8364    7.9483 LP  0  0  0  0  0  0  0  0  0  0  0  0  # atno 5835 bound_to 2755
   23.5795   31.5231   10.6312 LP  0  0  0  0  0  0  0  0  0  0  0  0  # atno 5836 bound_to 2757
   22.7470   30.2156   10.1174 LP  0  0  0  0  0  0  0  0  0  0  0  0  # atno 5837 bound_to 2757
   36.8295   22.1035    2.1249 LP  0  0  0  0  0  0  0  0  0  0  0  0  # atno 5858 bound_to 1952
   38.1498   22.4261    1.2198 LP  0  0  0  0  0  0  0  0  0  0  0  0  # atno 5859 bound_to 1952
   37.9468   20.4795    3.9337 LP  0  0  0  0  0  0  0  0  0  0  0  0  # atno 5860 bound_to 1953
   39.4638   20.8308    3.4418 LP  0  0  0  0  0  0  0  0  0  0  0  0  # atno 5861 bound_to 1953
   32.1224   20.7192   -0.0723 LP  0  0  0  0  0  0  0  0  0  0  0  0  # atno 5878 bound_to 2582
   33.5810   19.9852   -0.0531 LP  0  0  0  0  0  0  0  0  0  0  0  0  # atno 5879 bound_to 2582
   22.2968   34.7044   11.2060 LP  0  0  0  0  0  0  0  0  0  0  0  0  # atno 5896 bound_to 149 
   22.5379   36.1889   11.8422 LP  0  0  0  0  0  0  0  0  0  0  0  0  # atno 5897 bound_to 149 
   20.5133   34.6819   19.6433 LP  0  0  0  0  0  0  0  0  0  0  0  0  # atno 5903 bound_to 677 
   21.0669   33.7250   18.4415 LP  0  0  0  0  0  0  0  0  0  0  0  0  # atno 5904 bound_to 677 
   21.9061   37.1310   14.6765 LP  0  0  0  0  0  0  0  0  0  0  0  0  # atno 5911 bound_to 385 
   22.9285   35.8698   14.5007 LP  0  0  0  0  0  0  0  0  0  0  0  0  # atno 5912 bound_to 385 
   21.0555   34.6254   21.9985 LP  0  0  0  0  0  0  0  0  0  0  0  0  # atno 5923 bound_to 857 
   21.5766   35.6162   23.1874 LP  0  0  0  0  0  0  0  0  0  0  0  0  # atno 5924 bound_to 857 
   20.6769   32.4076   24.2573 LP  0  0  0  0  0  0  0  0  0  0  0  0  # atno 5925 bound_to 978 
   21.4399   30.9639   24.2492 LP  0  0  0  0  0  0  0  0  0  0  0  0  # atno 5926 bound_to 978 
   29.6776   33.3079    1.9355 LP  0  0  0  0  0  0  0  0  0  0  0  0  # atno 5937 bound_to 2732
   30.6522   32.0972    1.4344 LP  0  0  0  0  0  0  0  0  0  0  0  0  # atno 5938 bound_to 2732
   26.9339   38.8615    8.6833 LP  0  0  0  0  0  0  0  0  0  0  0  0  # atno 5947 bound_to 2288
   25.7094   37.8130    8.4225 LP  0  0  0  0  0  0  0  0  0  0  0  0  # atno 5948 bound_to 2288
   46.9994   30.9252   28.7027 LP  0  0  0  0  0  0  0  0  0  0  0  0  # atno 5987 bound_to 1099

>  <Dataset Name>  (2) 
Docking_Solutions2

$$$$
BnDHC16|AKR1C3_BnDHCs|sdf|16|dock15
     RDKit          3D

 30 32  0  0  0  0  0  0  0  0999 V2000
   33.5728   26.0051   14.4591 O   0  0  0  0  0  0  0  0  0  0  0  0
   32.7571   26.7364   15.0528 C   0  0  0  0  0  0  0  0  0  0  0  0
   33.2200   27.7955   15.9418 C   0  0  0  0  0  0  0  0  0  0  0  0
   31.2491   26.5175   14.8438 C   0  0  0  0  0  0  0  0  0  0  0  0
   33.5035   27.5119   17.2780 C   0  0  0  0  0  0  0  0  0  0  0  0
   33.3791   29.0932   15.4553 C   0  0  0  0  0  0  0  0  0  0  0  0
   30.9326   25.4002   13.8468 C   0  0  0  0  0  0  0  0  0  0  0  0
   33.3490   26.2432   17.7566 O   0  0  0  0  0  0  0  0  0  0  0  0
   33.9460   28.5259   18.1273 C   0  0  0  0  0  0  0  0  0  0  0  0
   33.1062   29.3925   14.1538 O   0  0  0  0  0  0  0  0  0  0  0  0
   33.8216   30.1069   16.3046 C   0  0  0  0  0  0  0  0  0  0  0  0
   31.3109   24.0460   14.3891 C   0  0  0  0  0  0  0  0  0  0  0  0
   34.1053   29.8233   17.6406 C   0  0  0  0  0  0  0  0  0  0  0  0
   34.2513   28.2241   19.5595 C   0  0  0  0  0  0  0  0  0  0  0  0
   32.6523   30.7152   13.8751 C   0  0  0  0  0  0  0  0  0  0  0  0
   31.1085   22.9035   13.6149 C   0  0  0  0  0  0  0  0  0  0  0  0
   31.8625   23.9349   15.6654 C   0  0  0  0  0  0  0  0  0  0  0  0
   34.5371   30.8263   18.4555 O   0  0  0  0  0  0  0  0  0  0  0  0
   35.3691   27.2205   19.7474 C   0  0  0  0  0  0  0  0  0  0  0  0
   31.4581   21.6500   14.1170 C   0  0  0  0  0  0  0  0  0  0  0  0
   32.2122   22.6814   16.1677 C   0  0  0  0  0  0  0  0  0  0  0  0
   35.1353   26.0400   20.4521 C   0  0  0  0  0  0  0  0  0  0  0  0
   36.6326   27.4765   19.2151 C   0  0  0  0  0  0  0  0  0  0  0  0
   32.0098   21.5390   15.3935 C   0  0  0  0  0  0  0  0  0  0  0  0
   36.1650   25.1149   20.6246 C   0  0  0  0  0  0  0  0  0  0  0  0
   37.6625   26.5516   19.3875 C   0  0  0  0  0  0  0  0  0  0  0  0
   32.3496   20.3156   15.8837 O   0  0  0  0  0  0  0  0  0  0  0  0
   37.4288   25.3711   20.0923 C   0  0  0  0  0  0  0  0  0  0  0  0
   35.9164   23.8531   21.3793 C   0  0  0  0  0  0  0  0  0  0  0  0
   31.6686   19.1857   15.3398 C   0  0  0  0  0  0  0  0  0  0  0  0
  1  2  2  0
  2  3  1  0
  2  4  1  0
  3  5  2  0
  3  6  1  0
  4  7  1  0
  5  8  1  0
  5  9  1  0
  6 10  1  0
  6 11  2  0
  7 12  1  0
  9 13  2  0
  9 14  1  0
 10 15  1  0
 12 16  2  0
 12 17  1  0
 13 18  1  0
 14 19  1  0
 16 20  1  0
 17 21  2  0
 19 22  2  0
 19 23  1  0
 20 24  2  0
 22 25  1  0
 23 26  2  0
 24 27  1  0
 25 28  2  0
 25 29  1  0
 27 30  1  0
 11 13  1  0
 21 24  1  0
 26 28  1  0
M  END
>  <Molecule Name>  (3) 
BnDHC16|AKR1C3_BnDHCs|sdf|16|dock15

>  <Molecule Name 2>  (3) 
BnDHC16

>  <Molecule Name 3>  (3) 
BnDHC16

>  <Gold.Version>  (3) 
5.8.1

>  <Gold.Id.Protein>  (3) 
1ZQ5|1ZQ5_protein|mol2

>  <Gold.PLP.Fitness>  (3) 
96.9532

>  <Gold.PLP.PLP>  (3) 
-97.3992

>  <Gold.PLP.part.hbond>  (3) 
-1.3783

>  <Gold.PLP.part.metal>  (3) 
0.0000

>  <Gold.PLP.part.buried>  (3) 
-7.4193

>  <Gold.PLP.part.nonpolar>  (3) 
-88.7697

>  <Gold.PLP.part.repulsive>  (3) 
0.0000

>  <Gold.PLP.ligand.clash>  (3) 
0.0062

>  <Gold.PLP.ligand.torsion>  (3) 
2.2423

>  <Gold.PLP.Chemscore.Hbond>  (3) 
0.4919

>  <Gold.PLP.Chemscore.CHOScore>  (3) 
0.0000

>  <Gold.PLP.Chemscore.Metal>  (3) 
0.0000

>  <Gold.Chemscore.Hbonds>  (3) 
donor molecule, donor type, donor heavy atom, donor atom, acceptor molecule, acceptor atom, score
      L1  H    18    44       P1  1091  0.49

>  <Gold.PLP.Chemscore.Internal.Correction>  (3) 
2.5689

>  <Gold.Protein.RotatedTorsions>  (3) 
[ 3171  162  161  159 ] final  -61.82 input   60.00 | X-H torsion
[ 3247  420  419  417 ] final -166.39 input   60.00 | X-H torsion
[ 3540  714  713  710 ] final   27.92 input   60.00 | X-H torsion
[ 3551  720  719  716 ] final  147.21 input   60.00 | X-H torsion
[ 3830 1010 1009 1006 ] final  136.16 input   60.00 | X-H torsion
[ 3817 1031 1030 1027 ] final  -14.20 input   60.00 | X-H torsion
[ 3884 1091 1090 1087 ] final  103.34 input   60.00 | X-H torsion
[ 4005 1211 1210 1207 ] final    5.44 input   60.00 | X-H torsion
[ 4176 1351 1350 1347 ] final  -73.18 input   60.00 | X-H torsion
[ 4690 1815 1814 1812 ] final   -4.38 input   60.00 | X-H torsion
[ 4701 1821 1820 1817 ] final  -13.03 input   60.00 | X-H torsion
[ 4725 1844 1843 1840 ] final   74.19 input   60.00 | X-H torsion
[ 5474 2607 2606 2603 ] final   18.63 input   60.00 | X-H torsion
[ 5511 2623 2621 2617 ] final -162.76 input   60.00 | X-H torsion
[ 5505 2624 2622 2618 ] final  -41.70 input   59.99 | X-H torsion
[ 5524 2648 2646 2642 ] final  170.66 input   60.00 | X-H torsion
[ 5544 2649 2647 2643 ] final  104.49 input   60.00 | X-H torsion
[ 5553 2686 2685 2683 ] final  -79.94 input   60.00 | X-H torsion
[ 5561 2705 2704 2702 ] final -168.38 input   59.99 | X-H torsion
[ 5577 2711 2710 2707 ] final   25.68 input   60.00 | X-H torsion
[ 5606 2755 2754 2752 ] final  126.22 input   60.00 | X-H torsion
[ 5604 2757 2756 2754 ] final   84.71 input   60.01 | X-H torsion
[ 4859 1952 1950 1946 ] final   13.16 input   60.00 | X-H torsion
[ 4857 1953 1951 1947 ] final -109.17 input   60.00 | X-H torsion
[ 5455 2582 2581 2579 ] final -154.44 input   60.00 | X-H torsion
[ 3166  149  148  145 ] final  166.11 input   60.00 | X-H torsion
[ 3502  677  676  673 ] final  -39.22 input   60.00 | X-H torsion
[ 2900  385  384  381 ] final  143.44 input   60.00 | X-H torsion
[ 3700  857  856  853 ] final   46.53 input   60.00 | X-H torsion
[ 3421  978  977  975 ] final   56.49 input   60.00 | X-H torsion
[ 5594 2732 2731 2729 ] final   30.92 input   60.00 | X-H torsion
[ 5194 2288 2287 2285 ] final  -10.11 input   60.00 | X-H torsion
[ 3758  894  892  890 ] final  -80.28 input   60.00 | X-H torsion
[ 3852 1048 1047 1046 ] final  109.42 input   59.99 | X-H torsion
[ 3922 1099 1100 1101 ] final  -71.19 input   60.00 | X-H torsion
[ 4758 1881 1880 1879 ] final -119.93 input   60.00 | X-H torsion
[ 4560 1689 1687 1685 ] final   83.77 input   60.00 | X-H torsion
[ 4591 1690 1688 1686 ] final -101.35 input   60.00 | X-H torsion

>  <Gold.Protein.ActiveResidues>  (3) 
PHE21   GLY22   THR23   TYR24   ALA25   PRO26   PRO27   GLU28   VAL29   PRO30  
 ARG31   ALA34   ASP50   SER51   ALA52   HIS53   LEU54   TYR55   ASN56   ASN57  
 GLU58   GLU59   GLN60   VAL61   THR82   SER83   LYS84   LEU85   TRP86   SER87  
 THR88   PHE89   HIS90   ALA98   ASN101  SER102  LYS105  LEU113  TYR114  LEU115 
 ILE116  HIS117  SER118  PRO119  MET120  SER121  LEU122  LYS123  PRO124  GLY125 
 GLU126  GLU127  LEU128  SER129  PRO130  ASN134  GLY135  LYS136  VAL137  ILE138 
 PHE139  ASP140  ILE141  VAL142  ASP143  LEU144  THR147  TRP148  MET151  GLY164 
 VAL165  SER166  ASN167  PHE168  ASN169  ARG170  ARG171  GLN172  LEU173  GLU174 
 MET175  ILE176  PRO186  CYS188  ASN189  GLN190  VAL191  GLU192  CYS193  HIS194 
 TYR196  PHE197  ASN198  ARG199  SER200  LYS201  LEU202  LEU203  PHE205  CYS206 
 ILE211  VAL212  LEU213  VAL214  ALA215  TYR216  SER217  ALA218  LEU219  GLY220 
 SER221  GLN222  ARG223  ASP224  LYS225  ARG226  TRP227  VAL228  ASP229  PRO230 
 SER232  LEU235  GLN260  ARG263  VAL265  VAL267  LEU268  ALA269  LYS270  TYR272 
 ASP300  ARG301  ASN302  LEU303  HIS304  TYR305  PHE306  ASN307  SER308  ASP309 
 SER310  PHE311  ALA312  SER313  HIS314  PRO315  ASN316  TYR317  PRO318  TYR319 
 SER320  ASP321  ACT500  NAP600

>  <Gold.Protein.RotatedAtoms>  (3) 
21.9773   37.1038   14.5740 H   0  0  0  0  0  0  0  0  0  0  0  0  # atno 2900 bound_to 385 
   22.4784   36.1570   11.8323 H   0  0  0  0  0  0  0  0  0  0  0  0  # atno 3166 bound_to 149 
   33.1289   34.6862   12.5022 H   0  0  0  0  0  0  0  0  0  0  0  0  # atno 3171 bound_to 162 
   24.5013   30.0772   12.6548 H   0  0  0  0  0  0  0  0  0  0  0  0  # atno 3247 bound_to 420 
   20.4881   32.4291   24.5449 H   0  0  0  0  0  0  0  0  0  0  0  0  # atno 3421 bound_to 978 
   21.0026   32.9242   19.3875 H   0  0  0  0  0  0  0  0  0  0  0  0  # atno 3502 bound_to 677 
   28.5214   26.3530   22.2867 H   0  0  0  0  0  0  0  0  0  0  0  0  # atno 3540 bound_to 714 
   30.1717   32.0765   27.0740 H   0  0  0  0  0  0  0  0  0  0  0  0  # atno 3551 bound_to 720 
   21.6477   35.8082   23.1072 H   0  0  0  0  0  0  0  0  0  0  0  0  # atno 3700 bound_to 857 
   25.9837   39.3206   22.5077 H   0  0  0  0  0  0  0  0  0  0  0  0  # atno 3758 bound_to 894 
   25.9361   40.0046   20.9986 H   0  0  0  0  0  0  0  0  0  0  0  0  # atno 3759 bound_to 894 
   26.9100   40.6536   22.1723 H   0  0  0  0  0  0  0  0  0  0  0  0  # atno 3760 bound_to 894 
   28.6057   21.5666   26.6010 H   0  0  0  0  0  0  0  0  0  0  0  0  # atno 3817 bound_to 1031
   29.9558   22.3800   18.9727 H   0  0  0  0  0  0  0  0  0  0  0  0  # atno 3830 bound_to 1010
   39.2740   31.4343   32.6129 H   0  0  0  0  0  0  0  0  0  0  0  0  # atno 3852 bound_to 1048
   39.6661   30.4093   33.8552 H   0  0  0  0  0  0  0  0  0  0  0  0  # atno 3853 bound_to 1048
   39.8298   29.9079   32.2839 H   0  0  0  0  0  0  0  0  0  0  0  0  # atno 3854 bound_to 1048
   36.7849   31.8786   20.2770 H   0  0  0  0  0  0  0  0  0  0  0  0  # atno 3884 bound_to 1091
   45.1957   31.1417   29.2262 H   0  0  0  0  0  0  0  0  0  0  0  0  # atno 3922 bound_to 1099
   46.5477   30.1999   29.4060 H   0  0  0  0  0  0  0  0  0  0  0  0  # atno 3923 bound_to 1099
   23.2521   21.9345   30.4438 H   0  0  0  0  0  0  0  0  0  0  0  0  # atno 4005 bound_to 1211
   24.5639   23.2615   15.6243 H   0  0  0  0  0  0  0  0  0  0  0  0  # atno 4176 bound_to 1351
   25.9329    7.3438    8.9400 H   0  0  0  0  0  0  0  0  0  0  0  0  # atno 4560 bound_to 1689
   27.3174    6.6936    9.5783 H   0  0  0  0  0  0  0  0  0  0  0  0  # atno 4561 bound_to 1689
   26.4278    5.8312    8.4773 H   0  0  0  0  0  0  0  0  0  0  0  0  # atno 4562 bound_to 1689
   25.6086    6.7439    9.8356 H   0  0  0  0  0  0  0  0  0  0  0  0  # atno 4591 bound_to 1690
   25.3172    6.3153   11.4100 H   0  0  0  0  0  0  0  0  0  0  0  0  # atno 4592 bound_to 1690
   26.5735    5.6212   10.5810 H   0  0  0  0  0  0  0  0  0  0  0  0  # atno 4593 bound_to 1690
   29.2158   22.1880   11.5690 H   0  0  0  0  0  0  0  0  0  0  0  0  # atno 4690 bound_to 1815
   28.4178   25.7420    6.7172 H   0  0  0  0  0  0  0  0  0  0  0  0  # atno 4701 bound_to 1821
   33.4239   26.5523    4.5498 H   0  0  0  0  0  0  0  0  0  0  0  0  # atno 4725 bound_to 1844
   41.7726   28.5082    1.3929 H   0  0  0  0  0  0  0  0  0  0  0  0  # atno 4758 bound_to 1881
   41.0489   27.9204    2.7633 H   0  0  0  0  0  0  0  0  0  0  0  0  # atno 4759 bound_to 1881
   40.2955   29.0926    1.8657 H   0  0  0  0  0  0  0  0  0  0  0  0  # atno 4760 bound_to 1881
   38.1143   19.5363    3.6046 H   0  0  0  0  0  0  0  0  0  0  0  0  # atno 4857 bound_to 1953
   38.1009   22.4125    1.2036 H   0  0  0  0  0  0  0  0  0  0  0  0  # atno 4859 bound_to 1952
   25.3997   38.0140    8.3635 H   0  0  0  0  0  0  0  0  0  0  0  0  # atno 5194 bound_to 2288
   32.1470   20.9696   -0.1344 H   0  0  0  0  0  0  0  0  0  0  0  0  # atno 5455 bound_to 2582
   41.6389   23.1775   14.5799 H   0  0  0  0  0  0  0  0  0  0  0  0  # atno 5474 bound_to 2607
   42.1033   25.3682   17.8308 H   0  0  0  0  0  0  0  0  0  0  0  0  # atno 5505 bound_to 2624
   39.5283   25.7059   16.5579 H   0  0  0  0  0  0  0  0  0  0  0  0  # atno 5511 bound_to 2623
   42.3512   18.1094   22.0632 H   0  0  0  0  0  0  0  0  0  0  0  0  # atno 5524 bound_to 2648
   42.5141   16.5570   19.9036 H   0  0  0  0  0  0  0  0  0  0  0  0  # atno 5544 bound_to 2649
   34.9326   16.0895   13.3668 H   0  0  0  0  0  0  0  0  0  0  0  0  # atno 5553 bound_to 2686
   30.1995   18.9910   11.3405 H   0  0  0  0  0  0  0  0  0  0  0  0  # atno 5561 bound_to 2705
   31.7320    9.2815   16.4667 H   0  0  0  0  0  0  0  0  0  0  0  0  # atno 5577 bound_to 2711
   30.6549   31.9997    1.5139 H   0  0  0  0  0  0  0  0  0  0  0  0  # atno 5594 bound_to 2732
   22.7822   30.2851    9.5256 H   0  0  0  0  0  0  0  0  0  0  0  0  # atno 5604 bound_to 2757
   25.2265   32.1890    8.8278 H   0  0  0  0  0  0  0  0  0  0  0  0  # atno 5606 bound_to 2755
   33.6009   33.3769   11.6589 LP  0  0  0  0  0  0  0  0  0  0  0  0  # atno 5611 bound_to 162 
   33.0763   33.2155   13.1969 LP  0  0  0  0  0  0  0  0  0  0  0  0  # atno 5612 bound_to 162 
   24.9550   29.6409   14.1554 LP  0  0  0  0  0  0  0  0  0  0  0  0  # atno 5623 bound_to 420 
   26.0385   29.6219   12.9338 LP  0  0  0  0  0  0  0  0  0  0  0  0  # atno 5624 bound_to 420 
   28.8216   24.7876   22.6144 LP  0  0  0  0  0  0  0  0  0  0  0  0  # atno 5635 bound_to 714 
   29.9326   25.6871   21.8251 LP  0  0  0  0  0  0  0  0  0  0  0  0  # atno 5636 bound_to 714 
   29.0257   30.9370   26.8835 LP  0  0  0  0  0  0  0  0  0  0  0  0  # atno 5639 bound_to 720 
   30.1899   31.1251   25.7539 LP  0  0  0  0  0  0  0  0  0  0  0  0  # atno 5640 bound_to 720 
   28.8767   21.4011   19.6977 LP  0  0  0  0  0  0  0  0  0  0  0  0  # atno 5657 bound_to 1010
   29.8562   22.3493   20.5967 LP  0  0  0  0  0  0  0  0  0  0  0  0  # atno 5658 bound_to 1010
   28.2802   21.5291   28.1950 LP  0  0  0  0  0  0  0  0  0  0  0  0  # atno 5665 bound_to 1031
   29.2187   20.3739   27.5230 LP  0  0  0  0  0  0  0  0  0  0  0  0  # atno 5666 bound_to 1031
   35.7201   30.8205   20.9054 LP  0  0  0  0  0  0  0  0  0  0  0  0  # atno 5671 bound_to 1091
   36.8968   30.2994   19.9002 LP  0  0  0  0  0  0  0  0  0  0  0  0  # atno 5672 bound_to 1091
   23.9633   22.9098   29.3524 LP  0  0  0  0  0  0  0  0  0  0  0  0  # atno 5687 bound_to 1211
   23.8593   21.3044   29.0718 LP  0  0  0  0  0  0  0  0  0  0  0  0  # atno 5688 bound_to 1211
   23.5815   24.4723   15.1587 LP  0  0  0  0  0  0  0  0  0  0  0  0  # atno 5695 bound_to 1351
   23.2799   22.9413   14.6773 LP  0  0  0  0  0  0  0  0  0  0  0  0  # atno 5696 bound_to 1351
   28.0425   21.3188   12.2873 LP  0  0  0  0  0  0  0  0  0  0  0  0  # atno 5744 bound_to 1815
   28.4888   22.7623   12.9067 LP  0  0  0  0  0  0  0  0  0  0  0  0  # atno 5745 bound_to 1815
   29.8496   24.9744    6.6245 LP  0  0  0  0  0  0  0  0  0  0  0  0  # atno 5748 bound_to 1821
   28.6959   24.4357    7.6470 LP  0  0  0  0  0  0  0  0  0  0  0  0  # atno 5749 bound_to 1821
   33.0444   25.4908    3.3763 LP  0  0  0  0  0  0  0  0  0  0  0  0  # atno 5750 bound_to 1844
   33.5970   24.9565    4.8170 LP  0  0  0  0  0  0  0  0  0  0  0  0  # atno 5751 bound_to 1844
   40.5131   23.7766   15.5907 LP  0  0  0  0  0  0  0  0  0  0  0  0  # atno 5779 bound_to 2607
   40.9885   24.6406   14.2891 LP  0  0  0  0  0  0  0  0  0  0  0  0  # atno 5780 bound_to 2607
   38.6078   24.7302   17.4792 LP  0  0  0  0  0  0  0  0  0  0  0  0  # atno 5787 bound_to 2623
   39.5992   24.0937   16.3485 LP  0  0  0  0  0  0  0  0  0  0  0  0  # atno 5788 bound_to 2623
   41.0523   26.3818   17.1123 LP  0  0  0  0  0  0  0  0  0  0  0  0  # atno 5789 bound_to 2624
   41.5776   25.0519   16.3235 LP  0  0  0  0  0  0  0  0  0  0  0  0  # atno 5790 bound_to 2624
   40.7641   18.3611   22.3202 LP  0  0  0  0  0  0  0  0  0  0  0  0  # atno 5797 bound_to 2648
   41.4026   18.6040   20.8369 LP  0  0  0  0  0  0  0  0  0  0  0  0  # atno 5798 bound_to 2648
   41.5499   15.2686   20.1449 LP  0  0  0  0  0  0  0  0  0  0  0  0  # atno 5799 bound_to 2649
   42.7535   15.5999   21.1977 LP  0  0  0  0  0  0  0  0  0  0  0  0  # atno 5800 bound_to 2649
   36.3644   15.4062   13.7291 LP  0  0  0  0  0  0  0  0  0  0  0  0  # atno 5812 bound_to 2686
   36.2172   17.0323   13.6974 LP  0  0  0  0  0  0  0  0  0  0  0  0  # atno 5813 bound_to 2686
   29.0085   18.6441   12.3937 LP  0  0  0  0  0  0  0  0  0  0  0  0  # atno 5818 bound_to 2705
   29.0482   17.9157   10.9327 LP  0  0  0  0  0  0  0  0  0  0  0  0  # atno 5819 bound_to 2705
   32.3822    7.8318   16.8186 LP  0  0  0  0  0  0  0  0  0  0  0  0  # atno 5822 bound_to 2711
   31.0366    7.9246   15.8981 LP  0  0  0  0  0  0  0  0  0  0  0  0  # atno 5823 bound_to 2711
   24.7675   31.6948    7.3469 LP  0  0  0  0  0  0  0  0  0  0  0  0  # atno 5834 bound_to 2755
   26.3526   31.7630    7.7331 LP  0  0  0  0  0  0  0  0  0  0  0  0  # atno 5835 bound_to 2755
   23.6419   31.6601    9.3914 LP  0  0  0  0  0  0  0  0  0  0  0  0  # atno 5836 bound_to 2757
   23.2894   31.0549   10.8665 LP  0  0  0  0  0  0  0  0  0  0  0  0  # atno 5837 bound_to 2757
   38.2988   22.4377    2.8186 LP  0  0  0  0  0  0  0  0  0  0  0  0  # atno 5858 bound_to 1952
   36.8344   22.1039    2.1777 LP  0  0  0  0  0  0  0  0  0  0  0  0  # atno 5859 bound_to 1952
   38.5697   21.0779    3.8576 LP  0  0  0  0  0  0  0  0  0  0  0  0  # atno 5860 bound_to 1953
   39.6035   20.0216    3.1632 LP  0  0  0  0  0  0  0  0  0  0  0  0  # atno 5861 bound_to 1953
   33.3488   19.8805   -0.0015 LP  0  0  0  0  0  0  0  0  0  0  0  0  # atno 5878 bound_to 2582
   33.6836   21.4232   -0.4195 LP  0  0  0  0  0  0  0  0  0  0  0  0  # atno 5879 bound_to 2582
   23.8151   35.3796   11.3254 LP  0  0  0  0  0  0  0  0  0  0  0  0  # atno 5896 bound_to 149 
   22.3512   34.6699   11.1840 LP  0  0  0  0  0  0  0  0  0  0  0  0  # atno 5897 bound_to 149 
   20.4839   34.2911   20.1022 LP  0  0  0  0  0  0  0  0  0  0  0  0  # atno 5903 bound_to 677 
   20.9060   34.3006   18.5247 LP  0  0  0  0  0  0  0  0  0  0  0  0  # atno 5904 bound_to 677 
   22.9356   35.7889   14.5996 LP  0  0  0  0  0  0  0  0  0  0  0  0  # atno 5911 bound_to 385 
   21.9937   36.1415   15.8861 LP  0  0  0  0  0  0  0  0  0  0  0  0  # atno 5912 bound_to 385 
   21.5685   35.9526   21.4883 LP  0  0  0  0  0  0  0  0  0  0  0  0  # atno 5923 bound_to 857 
   21.0565   34.5826   22.2148 LP  0  0  0  0  0  0  0  0  0  0  0  0  # atno 5924 bound_to 857 
   21.4441   31.2218   24.0188 LP  0  0  0  0  0  0  0  0  0  0  0  0  # atno 5925 bound_to 978 
   20.6552   31.0814   25.4417 LP  0  0  0  0  0  0  0  0  0  0  0  0  # atno 5926 bound_to 978 
   29.7854   32.0689    2.8876 LP  0  0  0  0  0  0  0  0  0  0  0  0  # atno 5937 bound_to 2732
   29.7422   33.3100    1.8272 LP  0  0  0  0  0  0  0  0  0  0  0  0  # atno 5938 bound_to 2732
   25.7493   39.6000    8.4660 LP  0  0  0  0  0  0  0  0  0  0  0  0  # atno 5947 bound_to 2288
   26.9256   38.4865    8.6742 LP  0  0  0  0  0  0  0  0  0  0  0  0  # atno 5948 bound_to 2288
   46.5821   31.5206   28.4255 LP  0  0  0  0  0  0  0  0  0  0  0  0  # atno 5987 bound_to 1099

>  <Dataset Name>  (3) 
Docking_Solutions3

$$$$
